Version 4
SHEET 1 5196 832
WIRE 0 32 0 0
WIRE 128 32 128 0
WIRE 272 32 272 0
WIRE 816 128 816 80
WIRE 1456 128 1456 80
WIRE 2112 128 2112 80
WIRE 2864 128 2864 80
WIRE 0 144 0 112
WIRE 128 144 128 112
WIRE 272 144 272 112
WIRE 608 208 96 208
WIRE 976 208 896 208
WIRE 1248 208 976 208
WIRE 1600 208 1536 208
WIRE 1904 208 1600 208
WIRE 2256 208 2192 208
WIRE 2656 208 2256 208
WIRE 3008 208 2944 208
WIRE 304 256 -384 256
WIRE -16 304 -64 304
WIRE 96 304 96 208
WIRE 96 304 64 304
WIRE 688 336 688 288
WIRE 816 336 816 288
WIRE 1328 336 1328 288
WIRE 1456 336 1456 288
WIRE 1984 336 1984 288
WIRE 2112 336 2112 288
WIRE 2736 336 2736 288
WIRE 2864 336 2864 288
WIRE 304 352 304 256
WIRE -272 400 -320 400
WIRE 0 400 -192 400
WIRE 0 480 0 400
WIRE -384 496 -384 256
WIRE -320 496 -320 400
WIRE -320 496 -384 496
WIRE -224 496 -320 496
WIRE -64 496 -64 304
WIRE -64 496 -80 496
WIRE -16 496 -64 496
WIRE 96 512 96 304
WIRE 96 512 48 512
WIRE -16 528 -48 528
WIRE 304 544 304 432
WIRE 0 608 0 544
FLAG 304 544 0
FLAG 0 144 0
FLAG 128 144 0
FLAG 0 0 Vp
FLAG 128 0 Vn
FLAG 816 80 Vp
FLAG 816 336 Vn
FLAG 976 208 OUT1
FLAG 272 144 0
FLAG 272 0 Vref
FLAG 688 336 Vref
FLAG 1600 208 OUT2
FLAG 1456 80 Vp
FLAG 1456 336 Vn
FLAG 1328 336 Vref
FLAG 2256 208 OUT3
FLAG 2112 80 Vp
FLAG 2112 336 Vn
FLAG 1984 336 Vref
FLAG 3008 208 OUT
FLAG 2864 80 Vp
FLAG 2864 336 Vn
FLAG 2736 336 Vref
FLAG 0 608 Vn
FLAG 0 400 Vp
FLAG -48 528 Vref
FLAG -384 256 IN
SYMBOL voltage 304 336 R0
WINDOW 123 24 124 Left 2
WINDOW 39 0 0 Left 2
SYMATTR Value2 AC 1
SYMATTR InstName VIN
SYMATTR Value SINE(0 3 200E3)
SYMBOL voltage 0 16 R0
WINDOW 123 0 0 Left 2
WINDOW 39 0 0 Left 2
SYMATTR InstName V2
SYMATTR Value 3.3
SYMBOL voltage 128 16 R0
WINDOW 123 0 0 Left 2
WINDOW 39 0 0 Left 2
SYMATTR InstName V3
SYMATTR Value 0
SYMBOL voltage 272 16 R0
WINDOW 123 0 0 Left 2
WINDOW 39 0 0 Left 2
SYMATTR InstName V1
SYMATTR Value 1.65
SYMBOL StageA_BandPassDeliyannisFriendNoPosFB_LT6220 640 160 R0
WINDOW 39 -35 -155 Left 2
WINDOW 0 -36 -221 Left 2
SYMATTR InstName STAGE1
SYMBOL StageB_BandPassDeliyannisFriendNoPosFB_LT6220 1280 160 R0
WINDOW 0 -35 -219 Left 2
WINDOW 39 -36 -158 Left 2
SYMATTR InstName STAGE2
SYMBOL StageC_BandPassDeliyannisFriendNoPosFB_LT6220 1936 160 R0
WINDOW 0 -35 -219 Left 2
WINDOW 39 -35 -157 Left 2
SYMATTR InstName STAGE3
SYMBOL StageD_BandPassDeliyannisFriendNoPosFB_LT6220 2688 160 R0
WINDOW 0 -36 -216 Left 2
WINDOW 39 -35 -161 Left 2
SYMATTR InstName STAGE4
SYMBOL Opamps\\AD8041 16 512 R0
SYMATTR InstName U1
SYMBOL res -176 384 R90
WINDOW 0 0 56 VBottom 2
WINDOW 3 32 56 VTop 2
SYMATTR InstName R1
SYMATTR Value 10k
SYMBOL res 80 288 R90
WINDOW 0 0 56 VBottom 2
WINDOW 3 32 56 VTop 2
SYMATTR InstName R2
SYMATTR Value 300k
SYMBOL res -64 480 R90
WINDOW 0 0 56 VBottom 2
WINDOW 3 32 56 VTop 2
SYMATTR InstName R3
SYMATTR Value 300k
SYMBOL cap -160 480 R90
WINDOW 0 0 32 VBottom 2
WINDOW 3 32 32 VTop 2
SYMATTR InstName C1
SYMATTR Value 10µ
TEXT 280 648 Left 2 !;ac dec 100 60555.1275463989 660555.1275463992 \n.save V(*?*) I(*?*)
TEXT 848 648 Left 2 ;If you're having trouble with simulation try the following:\n \n- Ensure that LTspice circuit folder is unzipped.  LTspice won't \nbe able to locate subcircuits if the folders are still zipped.\n \n- Update LTspice - devices that have been recently added to LTspice\nwon't be available unless you update by clicking Tools -> Sync Release.
TEXT 216 784 Left 2 !.tran 100u
